Version 4
SHEET 1 2316 1096
WIRE -176 -224 -768 -224
WIRE 272 -224 -176 -224
WIRE 752 -224 272 -224
WIRE -2032 -192 -2080 -192
WIRE -1904 -192 -1952 -192
WIRE -1728 -192 -1776 -192
WIRE -1600 -192 -1648 -192
WIRE -1200 -192 -1248 -192
WIRE -1072 -192 -1120 -192
WIRE -176 -144 -176 -224
WIRE 272 -144 272 -224
WIRE 752 -144 752 -224
WIRE -272 -112 -368 -112
WIRE 176 -112 96 -112
WIRE 656 -112 560 -112
WIRE -768 -80 -768 -224
WIRE -272 -64 -400 -64
WIRE 0 -64 -96 -64
WIRE 176 -64 64 -64
WIRE 448 -64 352 -64
WIRE 656 -64 528 -64
WIRE 928 -64 832 -64
WIRE -1200 -32 -1248 -32
WIRE -1072 -32 -1120 -32
WIRE -2032 -16 -2080 -16
WIRE -1904 -16 -1952 -16
WIRE -1728 -16 -1776 -16
WIRE -1600 -16 -1648 -16
WIRE -272 -16 -368 -16
WIRE 176 -16 96 -16
WIRE 656 -16 560 -16
WIRE -768 128 -768 0
WIRE -176 128 -176 16
WIRE -176 128 -768 128
WIRE 272 128 272 16
WIRE 272 128 -176 128
WIRE 752 128 752 16
WIRE 752 128 272 128
WIRE -1200 176 -1248 176
WIRE -1072 176 -1120 176
WIRE 752 176 752 128
WIRE 0 224 0 -64
WIRE 448 224 448 -64
WIRE 928 224 928 -64
WIRE -1200 352 -1248 352
WIRE -1072 352 -1120 352
WIRE 0 368 0 304
WIRE 448 368 448 304
WIRE 928 368 928 304
WIRE 0 528 0 448
WIRE 448 528 448 448
WIRE 448 528 0 528
WIRE 928 528 928 448
WIRE 928 528 448 528
WIRE -1200 560 -1248 560
WIRE -1072 560 -1120 560
WIRE -1200 736 -1248 736
WIRE -1072 736 -1120 736
FLAG -368 -112 UGH
IOPIN -368 -112 In
FLAG -368 -16 UGL
IOPIN -368 -16 In
FLAG 96 -112 VGH
IOPIN 96 -112 In
FLAG 96 -16 VGL
IOPIN 96 -16 In
FLAG 560 -112 WGH
IOPIN 560 -112 In
FLAG 560 -16 WGL
IOPIN 560 -16 In
FLAG -2080 -192 0
FLAG -2080 -16 0
FLAG -1904 -192 Vtri
FLAG -1904 -16 Vsin_A
FLAG -400 -64 A
IOPIN -400 -64 BiDir
FLAG 64 -64 B
IOPIN 64 -64 BiDir
FLAG 528 -64 C
IOPIN 528 -64 BiDir
FLAG 752 176 0
FLAG -1072 -192 UGH
FLAG -1776 -192 0
FLAG -1600 -192 Vsin_B
FLAG -1776 -16 0
FLAG -1600 -16 Vsin_C
FLAG -1248 -32 0
FLAG -1072 -32 UGL
FLAG -1072 176 VGH
FLAG -1248 352 0
FLAG -1072 352 VGL
FLAG -1072 560 WGH
FLAG -1248 736 0
FLAG -1072 736 WGL
FLAG -1248 -192 A
IOPIN -1248 -192 BiDir
FLAG -1248 176 B
IOPIN -1248 176 BiDir
FLAG -1248 560 C
IOPIN -1248 560 BiDir
SYMBOL AutoGenerated\\csd88599q5dc -176 -64 R0
SYMATTR InstName U1
SYMBOL AutoGenerated\\csd88599q5dc 272 -64 R0
SYMATTR InstName U2
SYMBOL AutoGenerated\\csd88599q5dc 752 -64 R0
SYMATTR InstName U3
SYMBOL voltage -768 -96 R0
WINDOW 0 24 96 Left 2
WINDOW 3 24 16 Left 2
WINDOW 123 0 0 Left 2
WINDOW 39 0 0 Left 2
SYMATTR InstName V1
SYMATTR Value 48
SYMBOL voltage -1936 -16 R90
WINDOW 0 -50 43 VRight 2
WINDOW 3 61 -55 VRight 2
WINDOW 123 0 0 Left 2
WINDOW 39 0 0 Left 2
SYMATTR InstName V2
SYMATTR Value SINE(0 10 100 0 0 0)
SYMBOL res -16 208 R0
SYMATTR InstName R1
SYMATTR Value 1
SYMBOL ind -16 352 R0
SYMATTR InstName L1
SYMATTR Value 10m
SYMBOL res 432 208 R0
SYMATTR InstName R2
SYMATTR Value 1
SYMBOL ind 432 352 R0
SYMATTR InstName L2
SYMATTR Value 10m
SYMBOL res 912 208 R0
SYMATTR InstName R3
SYMATTR Value 1
SYMBOL ind 912 352 R0
SYMATTR InstName L3
SYMATTR Value 10m
SYMBOL voltage -1936 -192 R90
WINDOW 0 -47 42 VRight 2
WINDOW 3 56 -95 VRight 2
WINDOW 123 0 0 Left 2
WINDOW 39 0 0 Left 2
SYMATTR InstName V3
SYMATTR Value PULSE(0 10 0 5u 5u 0 10u)
SYMBOL bv -1104 -192 R90
WINDOW 0 -32 56 VBottom 2
WINDOW 3 32 56 VTop 2
SYMATTR InstName B1
SYMATTR Value V= if(V(Vsin_A)>V(Vtri),5,0)
SYMBOL voltage -1632 -192 R90
WINDOW 0 -50 43 VRight 2
WINDOW 3 61 -55 VRight 2
WINDOW 123 0 0 Left 2
WINDOW 39 0 0 Left 2
SYMATTR InstName V4
SYMATTR Value SINE(0 10 100 0 0 120)
SYMBOL voltage -1632 -16 R90
WINDOW 0 -50 43 VRight 2
WINDOW 3 61 -55 VRight 2
WINDOW 123 0 0 Left 2
WINDOW 39 0 0 Left 2
SYMATTR InstName V5
SYMATTR Value SINE(0 10 100 0 0 240)
SYMBOL bv -1104 -32 R90
WINDOW 0 -32 56 VBottom 2
WINDOW 3 32 56 VTop 2
SYMATTR InstName B2
SYMATTR Value V= if(V(Vsin_A)<V(Vtri),5,0)
SYMBOL bv -1104 176 R90
WINDOW 0 -32 56 VBottom 2
WINDOW 3 32 56 VTop 2
SYMATTR InstName B3
SYMATTR Value V= if(V(Vsin_B)>V(Vtri),5,0)
SYMBOL bv -1104 352 R90
WINDOW 0 -32 56 VBottom 2
WINDOW 3 32 56 VTop 2
SYMATTR InstName B4
SYMATTR Value V= if(V(Vsin_b)<V(Vtri),5,0)
SYMBOL bv -1104 560 R90
WINDOW 0 -32 56 VBottom 2
WINDOW 3 32 56 VTop 2
SYMATTR InstName B5
SYMATTR Value V= if(V(Vsin_C)>V(Vtri),5,0)
SYMBOL bv -1104 736 R90
WINDOW 0 -32 56 VBottom 2
WINDOW 3 32 56 VTop 2
SYMATTR InstName B6
SYMATTR Value V= if(V(Vsin_C)<V(Vtri),5,0)
TEXT -184 -280 Left 4 ;U
TEXT 256 -288 Left 4 ;V
TEXT 736 -288 Left 4 ;W
TEXT -920 -640 Left 5 ;THREE PHASE INVERTER USING CDS88599 DUAL N-CHANNEL MOSFET
TEXT -744 -248 Left 2 ;fsw = 100kHz
TEXT -760 176 Left 2 !.tran 60ms
